[nrf]
10.245.111.57 ansible_ssh_user=root ansible_ssh_pass=ulak123

[smf]
10.245.111.48 ansible_ssh_user=root ansible_ssh_pass=ulak123

[upf1]
10.245.111.18 ansible_ssh_user=root ansible_ssh_pass=ulak123
[upf2]
10.245.111.83 ansible_ssh_user=root ansible_ssh_pass=ulak123

[upf:children]
upf1
upf2

[promethous]
10.245.111.119 ansible_ssh_user=root ansible_ssh_pass=ulak123

[MongoDB]
10.245.111.41 ansible_ssh_user=root ansible_ssh_pass=ulak123

[amf1]
10.245.111.116 ansible_ssh_user=root ansible_ssh_pass=ulak123
[amf2]
10.245.111.37 ansible_ssh_user=root ansible_ssh_pass=ulak123

[amf:children]
amf1
amf2

[PostGRE]
10.245.111.30 ansible_ssh_user=root ansible_ssh_pass=ulak123

[nef]
10.245.111.120 ansible_ssh_user=root ansible_ssh_pass=ulak123

[nssf]
10.245.111.65 ansible_ssh_user=root ansible_ssh_pass=ulak123

[pcf]
10.245.111.45 ansible_ssh_user=root ansible_ssh_pass=ulak123

[udr]
10.245.111.110 ansible_ssh_user=root ansible_ssh_pass=ulak123

[udm]
10.245.111.69 ansible_ssh_user=root ansible_ssh_pass=ulak123

[ausf]
10.245.111.38 ansible_ssh_user=root ansible_ssh_pass=ulak123

[tt:children]
nrf
nef
udr
udm
amf
smf
ausf
pcf
nssf
upf

[envovergw_tt:children]
tt
